*Heading
 gmsh_test_12.inp
*NODE
1, 3, 3, 3
2, -3, 3, 3
3, 3, -3, 3
4, 3, 3, 0
5, -3, -3, 3
6, -3, 3, 0
7, -3, -3, 0
8, 3, -3, 0
9, 1.5, 3, 3
10, 4.4408920985006e-15, 3, 3
11, -1.5, 3, 3
12, 3, 1.5, 3
13, 3, 4.4408920985006e-15, 3
14, 3, -1.5, 3
15, 3, 3, 2.25
16, 3, 3, 1.5
17, 3, 3, 0.75
18, -3, 1.5, 3
19, -3, 4.4408920985006e-15, 3
20, -3, -1.5, 3
** ... 287 like lines cut
******* E L E M E N T S *************
*ELEMENT, type=CPS4, ELSET=Surface1201
9, 1, 9, 66, 50
10, 9, 10, 49, 66
11, 50, 66, 49, 47
12, 13, 12, 67, 51
13, 12, 1, 50, 67
14, 51, 67, 50, 47
15, 10, 11, 68, 53
16, 11, 2, 52, 68
17, 53, 68, 52, 48
18, 2, 18, 69, 52
19, 18, 19, 54, 69
20, 52, 69, 54, 48
21, 19, 20, 70, 56
22, 20, 5, 55, 70
23, 56, 70, 55, 46
24, 5, 24, 71, 55
25, 24, 25, 57, 71
26, 55, 71, 57, 46
27, 3, 14, 72, 59
28, 14, 13, 58, 72
** ... 22 like lines cut
*ELEMENT, type=CPS4, ELSET=Surface1204
51, 34, 106, 123, 33
52, 106, 104, 107, 123
53, 33, 123, 107, 8
54, 8, 107, 124, 36
55, 107, 104, 108, 124
56, 36, 124, 108, 37
57, 7, 109, 125, 35
58, 109, 105, 110, 125
59, 35, 125, 110, 34
60, 40, 111, 126, 39
61, 111, 105, 109, 126
62, 39, 126, 109, 7
63, 6, 112, 127, 41
64, 112, 103, 113, 127
65, 41, 127, 113, 40
66, 43, 114, 128, 42
67, 114, 103, 112, 128
68, 42, 128, 112, 6
69, 37, 115, 129, 38
70, 115, 102, 116, 129
** ... 22 like lines cut
*ELEMENT, type=C3D8, ELSET=Volume1301
93, 47, 159, 184, 160, 161, 185, 187, 186
94, 159, 102, 115, 184, 185, 119, 132, 187
95, 160, 184, 115, 37, 186, 187, 132, 108
96, 104, 119, 185, 161, 108, 132, 187, 186
97, 47, 51, 75, 62, 161, 188, 191, 189
98, 51, 13, 58, 75, 188, 163, 190, 191
99, 62, 75, 58, 45, 189, 191, 190, 162
100, 104, 163, 188, 161, 162, 190, 191, 189
101, 46, 64, 77, 57, 164, 192, 195, 193
102, 64, 45, 60, 77, 192, 162, 194, 195
103, 57, 77, 60, 25, 193, 195, 194, 165
104, 104, 162, 192, 164, 165, 194, 195, 193
105, 103, 166, 196, 167, 168, 197, 199, 198
106, 166, 48, 54, 196, 197, 63, 76, 199
107, 167, 196, 54, 19, 198, 199, 76, 56
108, 46, 63, 197, 168, 56, 76, 199, 198
109, 103, 113, 133, 120, 168, 200, 203, 201
110, 113, 40, 111, 133, 200, 170, 202, 203
111, 120, 133, 111, 105, 201, 203, 202, 169
112, 46, 170, 200, 168, 169, 202, 203, 201
** ... 180 like lines cut
*ELSET,ELSET=TABLE_TOP
9, 10, 11, 12, 13, 14, 15, 16, 17, 18, 
19, 20, 21, 22, 23, 24, 25, 26, 27, 28, 
29, 30, 31, 32, 33, 34, 35, 36, 37, 38, 
39, 40, 41, 42, 43, 44, 45, 46, 47, 48, 
49, 50, 
*ELSET,ELSET=LEG_BOTTOMS
51, 52, 53, 54, 55, 56, 57, 58, 59, 60, 
61, 62, 63, 64, 65, 66, 67, 68, 69, 70, 
71, 72, 73, 74, 75, 76, 77, 78, 79, 80, 
81, 82, 83, 84, 85, 86, 87, 88, 89, 90, 
91, 92, 
*ELSET,ELSET=VOLUME
93, 94, 95, 96, 97, 98, 99, 100, 101, 102, 
103, 104, 105, 106, 107, 108, 109, 110, 111, 112, 
113, 114, 115, 116, 117, 118, 119, 120, 121, 122, 
123, 124, 125, 126, 127, 128, 129, 130, 131, 132, 
133, 134, 135, 136, 137, 138, 139, 140, 141, 142, 
143, 144, 145, 146, 147, 148, 149, 150, 151, 152, 
153, 154, 155, 156, 157, 158, 159, 160, 161, 162, 
163, 164, 165, 166, 167, 168, 169, 170, 171, 172, 
173, 174, 175, 176, 177, 178, 179, 180, 181, 182, 
183, 184, 185, 186, 187, 188, 189, 190, 191, 192, 
193, 194, 195, 196, 197, 198, 199, 200, 201, 202, 
203, 204, 205, 206, 207, 208, 209, 210, 211, 212, 
213, 214, 215, 216, 217, 218, 219, 220, 221, 222, 
223, 224, 225, 226, 227, 228, 229, 230, 231, 232, 
233, 234, 235, 236, 237, 238, 239, 240, 241, 242, 
243, 244, 245, 246, 247, 248, 249, 250, 251, 252, 
253, 254, 255, 256, 257, 258, 259, 260, 261, 262, 
263, 264, 265, 266, 267, 268, 269, 270, 271, 272, 
273, 274, 275, 276, 277, 278, 279, 280, 281, 282, 
283, 284, 285, 286, 287, 288, 289, 290, 291, 292, 
*NSET,NSET=NODES
1, 2, 3, 4, 5, 6, 7, 8, 
*NSET,NSET=TABLE_TOP
1, 2, 3, 5, 9, 10, 11, 12, 13, 14, 
18, 19, 20, 24, 25, 26, 45, 46, 47, 48, 
49, 50, 51, 52, 53, 54, 55, 56, 57, 58, 
59, 60, 61, 62, 63, 64, 65, 66, 67, 68, 
69, 70, 71, 72, 73, 74, 75, 76, 77, 78, 
79, 
*NSET,NSET=LEG_BOTTOMS
4, 6, 7, 8, 33, 34, 35, 36, 37, 38, 
39, 40, 41, 42, 43, 44, 102, 103, 104, 105, 
106, 107, 108, 109, 110, 111, 112, 113, 114, 115, 
116, 117, 118, 119, 120, 121, 122, 123, 124, 125, 
126, 127, 128, 129, 130, 131, 132, 133, 134, 135, 
136, 
*NSET,NSET=VOLUME
1, 2, 3, 4, 5, 6, 7, 8, 9, 10, 
11, 12, 13, 14, 15, 16, 17, 18, 19, 20, 
21, 22, 23, 24, 25, 26, 27, 28, 29, 30, 
31, 32, 33, 34, 35, 36, 37, 38, 39, 40, 
41, 42, 43, 44, 45, 46, 47, 48, 49, 50, 
51, 52, 53, 54, 55, 56, 57, 58, 59, 60, 
61, 62, 63, 64, 65, 66, 67, 68, 69, 70, 
71, 72, 73, 74, 75, 76, 77, 78, 79, 80, 
81, 82, 83, 84, 85, 86, 87, 88, 89, 90, 
91, 92, 93, 94, 95, 96, 97, 98, 99, 100, 
101, 102, 103, 104, 105, 106, 107, 108, 109, 110, 
111, 112, 113, 114, 115, 116, 117, 118, 119, 120, 
121, 122, 123, 124, 125, 126, 127, 128, 129, 130, 
131, 132, 133, 134, 135, 136, 137, 138, 139, 140, 
141, 142, 143, 144, 145, 146, 147, 148, 149, 150, 
151, 152, 153, 154, 155, 156, 157, 158, 159, 160, 
161, 162, 163, 164, 165, 166, 167, 168, 169, 170, 
171, 172, 173, 174, 175, 176, 177, 178, 179, 180, 
181, 182, 183, 184, 185, 186, 187, 188, 189, 190, 
191, 192, 193, 194, 195, 196, 197, 198, 199, 200, 
** ... 11 like lines cut

*MATERIAL, NAME=TableMaterial
*ELASTIC, TYPE=ISO
30000, 0.3

*SOLID SECTION,MATERIAL=TableMaterial,ELSET=VOLUME

*BOUNDARY, FIXED
LEG_BOTTOMS,1,3

*STEP
*STATIC

*DLOAD
TABLE_TOP, P1, -100

*END STEP
