*Heading
 gmsh_test_12.inp
*NODE
1, -1.6333150863647, 0.94178783893585, 2.3782620429993
2, -1.6333150863647, -0.83260577917099, 2.3782620429993
3, -0.87142252922058, 0.94178795814514, 2.3782620429993
4, -1.6333150863647, 0.94178783893585, 0
5, -1.6333150863647, 1.5943546295166, 3.0582954883575
6, -1.6333150863647, -2.0386333465576, 3.0582954883575
7, -1.6333150863647, 1.5943546295166, 0
8, 1.6043829917908, 1.5943546295166, 3.0582954883575
9, 1.0319699048996, 1.5943546295166, 2.3782620429993
10, 1.0319699048996, 0.94178795814514, 2.3782620429993
11, 1.0319699048996, 1.5943546295166, 0
12, -0.87142252922058, 1.5943546295166, 2.3782620429993
13, 1.6043829917908, 1.5943546295166, 0
14, 1.6043829917908, -2.0386333465576, 3.0582954883575
15, 1.6043829917908, -0.83260577917099, 2.3782620429993
16, 1.6043829917908, -0.83260577917099, 0
17, 1.6043829917908, 0.94178795814514, 2.3782620429993
18, 1.0319699048996, -0.83260577917099, 2.3782620429993
19, 1.6043829917908, -2.0386333465576, 0
20, -0.87142241001129, -2.0386333465576, 2.3782620429993
** ... 6691 like lines cut
******* E L E M E N T S *************
*ELEMENT, type=C3D20, ELSET=Volume1301
33, 937, 1053, 2743, 2562, 1039, 1187, 2746, 2744, 1665, 3565, 3566, 3564, 1663, 3570, 3571, 
3569, 1610, 1666, 3567, 3568
34, 1053, 912, 2561, 2743, 1187, 1051, 2745, 2746, 1667, 3572, 3573, 3565, 1664, 3575, 3576, 
3570, 1666, 1659, 3574, 3567
35, 2562, 2743, 2561, 787, 2744, 2746, 2745, 2563, 3566, 3573, 3578, 3577, 3571, 3576, 3581, 
3580, 3568, 3567, 3574, 3579
36, 902, 1051, 1187, 1039, 2563, 2745, 2746, 2744, 1656, 1664, 1663, 1612, 3581, 3576, 3571, 
3580, 3582, 3575, 3570, 3569
37, 905, 1056, 1194, 1064, 2564, 2747, 2750, 2748, 1675, 1708, 1707, 1706, 3587, 3589, 3590, 
3588, 3583, 3584, 3585, 3586
38, 1056, 906, 1065, 1194, 2747, 2566, 2749, 2750, 1678, 1712, 1711, 1708, 3593, 3594, 3595, 
3589, 3584, 3591, 3592, 3585
39, 1064, 1194, 1065, 907, 2748, 2750, 2749, 2565, 1707, 1711, 1710, 1709, 3590, 3595, 3598, 
3597, 3586, 3585, 3592, 3596
40, 785, 2566, 2747, 2564, 2565, 2749, 2750, 2748, 3599, 3593, 3587, 3600, 3598, 3595, 3590, 
3597, 3601, 3594, 3589, 3588
41, 938, 1094, 2751, 2567, 1098, 1216, 2753, 2752, 1830, 3603, 3604, 3602, 1841, 3608, 3609, 
3607, 1843, 1844, 3605, 3606
42, 1094, 912, 2561, 2751, 1216, 1053, 2743, 2753, 1826, 3572, 3610, 3603, 1842, 3565, 3611, 
3608, 1844, 1667, 3573, 3605
** ... 2548 like lines cut
*ELSET,ELSET=VOLUME
33, 34, 35, 36, 37, 38, 39, 40, 41, 42, 
43, 44, 45, 46, 47, 48, 49, 50, 51, 52, 
53, 54, 55, 56, 57, 58, 59, 60, 61, 62, 
63, 64, 65, 66, 67, 68, 69, 70, 71, 72, 
73, 74, 75, 76, 77, 78, 79, 80, 81, 82, 
83, 84, 85, 86, 87, 88, 89, 90, 91, 92, 
93, 94, 95, 96, 97, 98, 99, 100, 101, 102, 
103, 104, 105, 106, 107, 108, 109, 110, 111, 112, 
113, 114, 115, 116, 117, 118, 119, 120, 121, 122, 
123, 124, 125, 126, 127, 128, 129, 130, 131, 132, 
133, 134, 135, 136, 137, 138, 139, 140, 141, 142, 
143, 144, 145, 146, 147, 148, 149, 150, 151, 152, 
153, 154, 155, 156, 157, 158, 159, 160, 161, 162, 
163, 164, 165, 166, 167, 168, 169, 170, 171, 172, 
173, 174, 175, 176, 177, 178, 179, 180, 181, 182, 
183, 184, 185, 186, 187, 188, 189, 190, 191, 192, 
193, 194, 195, 196, 197, 198, 199, 200, 201, 202, 
203, 204, 205, 206, 207, 208, 209, 210, 211, 212, 
213, 214, 215, 216, 217, 218, 219, 220, 221, 222, 
223, 224, 225, 226, 227, 228, 229, 230, 231, 232, 
** ... 109 like lines cut
*NSET,NSET=NODES
1, 2, 3, 4, 5, 6, 7, 8, 9, 10, 
11, 12, 13, 14, 15, 16, 17, 18, 19, 20, 
21, 22, 23, 24, 25, 26, 27, 28, 29, 30, 
31, 32, 
*NSET,NSET=TABLE_TOP
5, 6, 8, 14, 
*NSET,NSET=LEG_BOTTOMS
4, 7, 11, 13, 16, 19, 23, 24, 25, 26, 
27, 28, 29, 30, 31, 32, 
*NSET,NSET=VOLUME
1, 2, 3, 4, 5, 6, 7, 8, 9, 10, 
11, 12, 13, 14, 15, 16, 17, 18, 19, 20, 
21, 22, 23, 24, 25, 26, 27, 28, 29, 30, 
31, 32, 33, 34, 35, 36, 37, 38, 39, 40, 
41, 42, 43, 44, 45, 46, 47, 48, 49, 50, 
51, 52, 53, 54, 55, 56, 57, 58, 59, 60, 
61, 62, 63, 64, 65, 66, 67, 68, 69, 70, 
71, 72, 73, 74, 75, 76, 77, 78, 79, 80, 
81, 82, 83, 84, 85, 86, 87, 88, 89, 90, 
91, 92, 93, 94, 95, 96, 97, 98, 99, 100, 
101, 102, 103, 104, 105, 106, 107, 108, 109, 110, 
111, 112, 113, 114, 115, 116, 117, 118, 119, 120, 
121, 122, 123, 124, 125, 126, 127, 128, 129, 130, 
131, 132, 133, 134, 135, 136, 137, 138, 139, 140, 
141, 142, 143, 144, 145, 146, 147, 148, 149, 150, 
151, 152, 153, 154, 155, 156, 157, 158, 159, 160, 
161, 162, 163, 164, 165, 166, 167, 168, 169, 170, 
171, 172, 173, 174, 175, 176, 177, 178, 179, 180, 
181, 182, 183, 184, 185, 186, 187, 188, 189, 190, 
191, 192, 193, 194, 195, 196, 197, 198, 199, 200, 
** ... 652 like lines cut

*MATERIAL, NAME=TableMaterial
*ELASTIC, TYPE=ISO
30000, 0.3

*SOLID SECTION,MATERIAL=TableMaterial,ELSET=VOLUME

*BOUNDARY, FIXED
LEG_BOTTOMS,1,3

*STEP,INC=1000,NLGEOM=YES
*STATIC

*DLOAD
VOLUME, P1, -100

*NODE FILE,GLOBAL=YES, NSET=VOLUME
RF,U

*EL FILE,GLOBAL=YES, VOLUME
ME,S

*END STEP
