*Heading
 gmsh_test_12.inp
*NODE
1, 4, 5, 8
2, -6, 5, 8
3, 4, -7, 8
4, 4, 5, -3
5, -6, -7, 8
6, -6, 5, -3
7, -6, -7, -3
8, 4, -7, -3
9, 2, 5, 8
10, 0, 5, 8
11, -2, 5, 8
12, -4, 5, 8
13, 4, 3, 8
14, 4, 1, 8
15, 4, -1, 8
16, 4, -3, 8
17, 4, -5, 8
18, 4, 5, 6.1666666666667
19, 4, 5, 4.3333333333333
20, 4, 5, 2.5
** ... 279 like lines cut
******* E L E M E N T S *************
*ELEMENT, type=CPS3, ELSET=Surface1201
9, 1, 9, 91
10, 13, 1, 91
11, 12, 2, 92
12, 2, 23, 92
13, 27, 5, 90
14, 5, 33, 90
15, 3, 17, 89
16, 36, 3, 89
17, 9, 10, 81
18, 9, 81, 91
19, 10, 11, 67
20, 10, 67, 81
21, 11, 12, 84
22, 67, 11, 84
23, 84, 12, 92
24, 14, 13, 69
25, 69, 13, 91
26, 15, 14, 79
27, 14, 69, 79
28, 16, 15, 66
** ... 56 like lines cut
*ELEMENT, type=CPS3, ELSET=Surface1204
85, 47, 186, 8
86, 8, 186, 51
87, 7, 183, 50
88, 56, 183, 7
89, 6, 184, 60
90, 61, 184, 6
91, 55, 185, 4
92, 4, 185, 64
93, 48, 178, 47
94, 178, 186, 47
95, 49, 160, 48
96, 160, 178, 48
97, 50, 174, 49
98, 49, 174, 160
99, 50, 183, 174
100, 51, 182, 52
101, 51, 186, 182
102, 52, 162, 53
103, 52, 182, 162
104, 53, 180, 54
** ... 56 like lines cut
*ELEMENT, type=C3D4, ELSET=Volume1301
161, 224, 275, 250, 283
162, 253, 257, 256, 264
163, 257, 272, 202, 275
164, 260, 261, 253, 269
165, 231, 256, 264, 273
166, 232, 264, 231, 288
167, 230, 264, 232, 288
168, 256, 231, 264, 288
169, 132, 269, 134, 290
170, 260, 269, 132, 290
171, 66, 259, 195, 266
172, 224, 190, 275, 283
173, 132, 269, 260, 276
174, 261, 269, 133, 273
175, 189, 279, 268, 280
176, 155, 273, 147, 287
177, 195, 259, 204, 266
178, 202, 272, 257, 285
179, 189, 266, 279, 280
180, 249, 273, 225, 282
** ... 936 like lines cut
*ELSET,ELSET=TABLE_TOP
9, 10, 11, 12, 13, 14, 15, 16, 17, 18, 
19, 20, 21, 22, 23, 24, 25, 26, 27, 28, 
29, 30, 31, 32, 33, 34, 35, 36, 37, 38, 
39, 40, 41, 42, 43, 44, 45, 46, 47, 48, 
49, 50, 51, 52, 53, 54, 55, 56, 57, 58, 
59, 60, 61, 62, 63, 64, 65, 66, 67, 68, 
69, 70, 71, 72, 73, 74, 75, 76, 77, 78, 
79, 80, 81, 82, 83, 84, 
*ELSET,ELSET=LEG_BOTTOMS
85, 86, 87, 88, 89, 90, 91, 92, 93, 94, 
95, 96, 97, 98, 99, 100, 101, 102, 103, 104, 
105, 106, 107, 108, 109, 110, 111, 112, 113, 114, 
115, 116, 117, 118, 119, 120, 121, 122, 123, 124, 
125, 126, 127, 128, 129, 130, 131, 132, 133, 134, 
135, 136, 137, 138, 139, 140, 141, 142, 143, 144, 
145, 146, 147, 148, 149, 150, 151, 152, 153, 154, 
155, 156, 157, 158, 159, 160, 
*ELSET,ELSET=VOLUME
161, 162, 163, 164, 165, 166, 167, 168, 169, 170, 
171, 172, 173, 174, 175, 176, 177, 178, 179, 180, 
181, 182, 183, 184, 185, 186, 187, 188, 189, 190, 
191, 192, 193, 194, 195, 196, 197, 198, 199, 200, 
201, 202, 203, 204, 205, 206, 207, 208, 209, 210, 
211, 212, 213, 214, 215, 216, 217, 218, 219, 220, 
221, 222, 223, 224, 225, 226, 227, 228, 229, 230, 
231, 232, 233, 234, 235, 236, 237, 238, 239, 240, 
241, 242, 243, 244, 245, 246, 247, 248, 249, 250, 
251, 252, 253, 254, 255, 256, 257, 258, 259, 260, 
261, 262, 263, 264, 265, 266, 267, 268, 269, 270, 
271, 272, 273, 274, 275, 276, 277, 278, 279, 280, 
281, 282, 283, 284, 285, 286, 287, 288, 289, 290, 
291, 292, 293, 294, 295, 296, 297, 298, 299, 300, 
301, 302, 303, 304, 305, 306, 307, 308, 309, 310, 
311, 312, 313, 314, 315, 316, 317, 318, 319, 320, 
321, 322, 323, 324, 325, 326, 327, 328, 329, 330, 
331, 332, 333, 334, 335, 336, 337, 338, 339, 340, 
341, 342, 343, 344, 345, 346, 347, 348, 349, 350, 
351, 352, 353, 354, 355, 356, 357, 358, 359, 360, 
** ... 76 like lines cut


** Material Properties (Replace 'a' with the actual Young's modulus value)
*MATERIAL,NAME=TableMaterial
*ELASTIC, TYPE = ISO
30000, 0.3

** Section
*SOLID SECTION,MATERIAL=TableMaterial,ELSET=VOLUME

** Boundary Conditions
*BOUNDARY FIX, LEG_BOTTOMS  # Fix all displacements for leg bottoms

** Step
*STEP
*STATIC

** Load
*DLOAD
TABLE_TOP, P, -100  # Uniform downward pressure (adjust -100 as needed)

** Output Request
*NODE FILE,GLOBAL=YES,NSET=NALL
U
*EL FILE,ELSET=EALL
S,MISES

** End Step
*END STEP

