*INCLUDE, INPUT=gmsh_test_1.msh
** Material Properties (Replace 'a' with the actual Young's modulus value)
*MATERIAL,NAME=TableMaterial
*ELASTIC, TYPE = ISO
30000, 0.3

** Element Set
*ELSET,ELSET=EALL,GENERATE
1,32

** Section
*SOLID SECTION,MATERIAL=TableMaterial,ELSET=EALL

** Boundary Conditions
*BOUNDARY LEG_BOTTOMS, 1, 3  # Fix all displacements for leg bottoms

** Step
*STEP
** Load
*DLOAD TABLE_TOP, P1, -100  # Uniform downward pressure (adjust -100 as needed)
*STATIC

** Output Request
*NODE FILE,GLOBAL=YES,ELSET=EALL
U
*EL FILE
S

** End Step
*END STEP
