*Heading
 gmsh_test_12.inp
*NODE
1, -1.6333150863647, 0.94178783893585, 2.3782620429993
2, -1.6333150863647, -0.83260577917099, 2.3782620429993
3, -0.87142252922058, 0.94178795814514, 2.3782620429993
4, -1.6333150863647, 0.94178783893585, 0
5, -1.6333150863647, 1.5943546295166, 3.0582954883575
6, -1.6333150863647, -2.0386333465576, 3.0582954883575
7, -1.6333150863647, 1.5943546295166, 0
8, 1.6043829917908, 1.5943546295166, 3.0582954883575
9, 1.0319699048996, 1.5943546295166, 2.3782620429993
10, 1.0319699048996, 0.94178795814514, 2.3782620429993
11, 1.0319699048996, 1.5943546295166, 0
12, -0.87142252922058, 1.5943546295166, 2.3782620429993
13, 1.6043829917908, 1.5943546295166, 0
14, 1.6043829917908, -2.0386333465576, 3.0582954883575
15, 1.6043829917908, -0.83260577917099, 2.3782620429993
16, 1.6043829917908, -0.83260577917099, 0
17, 1.6043829917908, 0.94178795814514, 2.3782620429993
18, 1.0319699048996, -0.83260577917099, 2.3782620429993
19, 1.6043829917908, -2.0386333465576, 0
20, -0.87142241001129, -2.0386333465576, 2.3782620429993
** ... 1839 like lines cut
******* E L E M E N T S *************
*ELEMENT, type=C3D8, ELSET=Volume1301
33, 373, 489, 1039, 858, 475, 623, 1042, 1040
34, 489, 348, 857, 1039, 623, 487, 1041, 1042
35, 858, 1039, 857, 299, 1040, 1042, 1041, 859
36, 338, 487, 623, 475, 859, 1041, 1042, 1040
37, 341, 492, 630, 500, 860, 1043, 1046, 1044
38, 492, 342, 501, 630, 1043, 862, 1045, 1046
39, 500, 630, 501, 343, 1044, 1046, 1045, 861
40, 297, 862, 1043, 860, 861, 1045, 1046, 1044
41, 374, 530, 1047, 863, 534, 652, 1049, 1048
42, 530, 348, 857, 1047, 652, 489, 1039, 1049
43, 863, 1047, 857, 299, 1048, 1049, 1039, 858
44, 373, 489, 652, 534, 858, 1039, 1049, 1048
45, 340, 486, 1050, 865, 485, 621, 1053, 1051
46, 486, 339, 864, 1050, 621, 480, 1052, 1053
47, 865, 1050, 864, 299, 1051, 1053, 1052, 859
48, 338, 480, 621, 485, 859, 1052, 1053, 1051
49, 373, 866, 1054, 429, 475, 1055, 1057, 614
50, 866, 300, 867, 1054, 1055, 868, 1056, 1057
51, 429, 1054, 867, 335, 614, 1057, 1056, 473
52, 338, 868, 1055, 475, 473, 1056, 1057, 614
** ... 1264 like lines cut
*ELSET,ELSET=VOLUME
33, 34, 35, 36, 37, 38, 39, 40, 41, 42, 
43, 44, 45, 46, 47, 48, 49, 50, 51, 52, 
53, 54, 55, 56, 57, 58, 59, 60, 61, 62, 
63, 64, 65, 66, 67, 68, 69, 70, 71, 72, 
73, 74, 75, 76, 77, 78, 79, 80, 81, 82, 
83, 84, 85, 86, 87, 88, 89, 90, 91, 92, 
93, 94, 95, 96, 97, 98, 99, 100, 101, 102, 
103, 104, 105, 106, 107, 108, 109, 110, 111, 112, 
113, 114, 115, 116, 117, 118, 119, 120, 121, 122, 
123, 124, 125, 126, 127, 128, 129, 130, 131, 132, 
133, 134, 135, 136, 137, 138, 139, 140, 141, 142, 
143, 144, 145, 146, 147, 148, 149, 150, 151, 152, 
153, 154, 155, 156, 157, 158, 159, 160, 161, 162, 
163, 164, 165, 166, 167, 168, 169, 170, 171, 172, 
173, 174, 175, 176, 177, 178, 179, 180, 181, 182, 
183, 184, 185, 186, 187, 188, 189, 190, 191, 192, 
193, 194, 195, 196, 197, 198, 199, 200, 201, 202, 
203, 204, 205, 206, 207, 208, 209, 210, 211, 212, 
213, 214, 215, 216, 217, 218, 219, 220, 221, 222, 
223, 224, 225, 226, 227, 228, 229, 230, 231, 232, 
** ... 109 like lines cut
*NSET,NSET=NODES
1, 2, 3, 4, 5, 6, 7, 8, 9, 10, 
11, 12, 13, 14, 15, 16, 17, 18, 19, 20, 
21, 22, 23, 24, 25, 26, 27, 28, 29, 30, 
31, 32, 
*NSET,NSET=TABLE_TOP
5, 6, 8, 14, 
*NSET,NSET=LEG_BOTTOMS
4, 7, 11, 13, 16, 19, 23, 24, 25, 26, 
27, 28, 29, 30, 31, 32, 
*NSET,NSET=VOLUME
1, 2, 3, 4, 5, 6, 7, 8, 9, 10, 
11, 12, 13, 14, 15, 16, 17, 18, 19, 20, 
21, 22, 23, 24, 25, 26, 27, 28, 29, 30, 
31, 32, 33, 34, 35, 36, 37, 38, 39, 40, 
41, 42, 43, 44, 45, 46, 47, 48, 49, 50, 
51, 52, 53, 54, 55, 56, 57, 58, 59, 60, 
61, 62, 63, 64, 65, 66, 67, 68, 69, 70, 
71, 72, 73, 74, 75, 76, 77, 78, 79, 80, 
81, 82, 83, 84, 85, 86, 87, 88, 89, 90, 
91, 92, 93, 94, 95, 96, 97, 98, 99, 100, 
101, 102, 103, 104, 105, 106, 107, 108, 109, 110, 
111, 112, 113, 114, 115, 116, 117, 118, 119, 120, 
121, 122, 123, 124, 125, 126, 127, 128, 129, 130, 
131, 132, 133, 134, 135, 136, 137, 138, 139, 140, 
141, 142, 143, 144, 145, 146, 147, 148, 149, 150, 
151, 152, 153, 154, 155, 156, 157, 158, 159, 160, 
161, 162, 163, 164, 165, 166, 167, 168, 169, 170, 
171, 172, 173, 174, 175, 176, 177, 178, 179, 180, 
181, 182, 183, 184, 185, 186, 187, 188, 189, 190, 
191, 192, 193, 194, 195, 196, 197, 198, 199, 200, 
** ... 166 like lines cut

*MATERIAL, NAME=TableMaterial
*ELASTIC, TYPE=ISO
30000, 0.3

*SOLID SECTION,MATERIAL=TableMaterial,ELSET=VOLUME

*BOUNDARY, FIXED
LEG_BOTTOMS,1,3

*STEP,INC=1000,NLGEOM=YES
*STATIC

*DLOAD
VOLUME, P1, -100

*NODE FILE,GLOBAL=YES, NSET=VOLUME
RF,U

*EL FILE,GLOBAL=YES, VOLUME
ME,S

*END STEP
