*INCLUDE, INPUT=gmsh_test_1.msh
** Material Properties (Replace 'a' with the actual Young's modulus value)
*MATERIAL,NAME=TableMaterial
*ELASTIC, TYPE = ISO
30000, 0.3

** Element Set
*ELSET,ELSET=EALL,GENERATE
0,0

*NSET,NSET=NALL,GENERATE
0,0

** Section
*SOLID SECTION,MATERIAL=TableMaterial,ELSET=EALL

** Boundary Conditions
*BOUNDARY LEG_BOTTOMS, 1, 3  # Fix all displacements for leg bottoms

** Load
*DLOAD TABLE_TOP, P, -100  # Uniform downward pressure (adjust -100 as needed)

** Step
*STEP
*STATIC

** Output Request
*NODE FILE,GLOBAL=YES,NSET=NALL
U
*EL FILE,ELSET=EALL
S,MISES

** End Step
*END STEP
