*INCLUDE, INPUT=gmsh_test_1.msh
** Material Properties (Replace 'a' with the actual Young's modulus value)
*MATERIAL,NAME=TableMaterial
*ELASTIC
30000, 0.3  

** Section
*SHELL SECTION,ELSET=Eall,MATERIAL=TableMaterial,OFFSET=SNEG
*NODAL THICKNESS
gmsh_test_1.msh  # Assuming the mesh file contains thickness information

** Boundary Conditions
*BOUNDARY
leg_bottoms, 1, 3  # Fix all displacements for leg bottoms

** Load
*DLOAD
table_top, P, -100  # Uniform downward pressure (adjust -100 as needed)

** Step
*STEP,NLGEOM=YES
*STATIC

** Output Request
*NODE FILE, NSET=Nall
U
*EL FILE
S, MISES, SEQV

** End Step
*END STEP
